# generated using pymatgen
data_K
_symmetry_space_group_name_H-M   'P 1'
_cell_length_a   8.02294364
_cell_length_b   8.02294364
_cell_length_c   9.76707756
_cell_angle_alpha   90.00000000
_cell_angle_beta   90.00000000
_cell_angle_gamma   103.13675638
_symmetry_Int_Tables_number   1
_chemical_formula_structural   K
_chemical_formula_sum   K8
_cell_volume   612.23116258
_cell_formula_units_Z   8
loop_
 _symmetry_equiv_pos_site_id
 _symmetry_equiv_pos_as_xyz
  1  'x, y, z'
loop_
 _atom_site_type_symbol
 _atom_site_label
 _atom_site_symmetry_multiplicity
 _atom_site_fract_x
 _atom_site_fract_y
 _atom_site_fract_z
 _atom_site_occupancy
  K  K0  1  0.74679295  0.25320705  0.50000000  1
  K  K1  1  0.25320705  0.74679295  0.50000000  1
  K  K2  1  0.76089684  0.76089684  0.26131128  1
  K  K3  1  0.26089684  0.26089684  0.23868872  1
  K  K4  1  0.75320705  0.24679295  0.00000000  1
  K  K5  1  0.24679295  0.75320705  -0.00000000  1
  K  K6  1  0.73910316  0.73910316  0.76131128  1
  K  K7  1  0.23910316  0.23910316  0.73868872  1
